---- qbsp / ericw-tools v0.18.1-32-g6660c5f ----
Input file: 2castle.map
Output file: 2castle.bsp

---- LoadMapFile ----
*** WARNING 06: No info_player_deathmatch entities in level
           18 faces
            3 brushes
            2 entities
            3 unique texnames
           18 texinfo

Opened WAD: C:/QuakeDev/wads/prototype.wad
Processing hull 0...
---- Brush_LoadEntity ----
            3 brushes
           16 planes
---- CSGFaces ----
           18 brushfaces
           22 csgfaces
           22 mergedfaces
---- SolidBSP ----
           46 split nodes
           13 solid leafs
           34 empty leafs
            0 water leafs
            0 detail leafs
            0 detail illusionary leafs
            0 detail fence leafs
            0 illusionary visblocker leafs
          356 leaffaces
          356 nodefaces
---- Portalize ----
           34 vis leafs
           34 vis clusters
           80 vis portals
---- FillOutside ----
*** WARNING 10: Reached occupant at (-32 16 40), no filling performed.
Leak file written to 2castle.pts
---- MakeFaceEdges ----
---- GrowRegions ----
Processing hull 1...
*** WARNING 19: No entities in empty space -- no filling performed (hull 1)
Processing hull 2...
*** WARNING 19: No entities in empty space -- no filling performed (hull 2)
*** WARNING 16: Texture __TB_empty not found
---- WriteBSPFile ----
Wrote 2castle.bsp
           37 planes              740
          431 vertexes           5172
           46 nodes              1104
           16 texinfo             640
          356 faces              7120
           92 clipnodes           736
           35 leafs               980
          356 marksurfaces        712
         1424 surfedges          5696
          812 edges              3248
            3 textures          27296
              lightdata             0
              visdata               0
              entdata             145

0.112 seconds elapsed
Peak memory usage: 1067292 (1.0M)
