---- qbsp / ericw-tools v0.18.1-32-g6660c5f ----
Input file: shamjam.map
Output file: shamjam.bsp

---- LoadMapFile ----
*** WARNING 06: No info_player_deathmatch entities in level
          716 faces
          112 brushes
           50 entities
           11 unique texnames
           96 texinfo

Opened WAD: C:/quakedev/wads/e4m8.wad
Opened WAD: C:/quakedev/wads/mg1.wad
Processing hull 0...
---- Brush_LoadEntity ----
          110 brushes
          197 planes
---- CSGFaces ----
          704 brushfaces
          712 csgfaces
          624 mergedfaces
---- SolidBSP ----
          879 split nodes
          276 solid leafs
          584 empty leafs
           20 water leafs
            0 detail leafs
            0 detail illusionary leafs
            0 detail fence leafs
            0 illusionary visblocker leafs
         1618 leaffaces
         1487 nodefaces
---- Portalize ----
          604 vis leafs
          604 vis clusters
         1824 vis portals
---- FillOutside ----
          216 outleafs
---- MergeAll ----
          567 mergefaces
---- SolidBSP ----
          357 split nodes
          135 solid leafs
          214 empty leafs
            9 water leafs
            0 detail leafs
            0 detail illusionary leafs
            0 detail fence leafs
            0 illusionary visblocker leafs
          965 leaffaces
          702 nodefaces
---- Portalize ----
          223 vis leafs
          223 vis clusters
          833 vis portals
---- Tjunc ----
          796 world edges
         2563 edge points
          650 edges added by tjunctions
            0 faces added by tjunctions
---- MakeFaceEdges ----
---- GrowRegions ----
Processing hull 1...
Processing hull 2...
---- WriteBSPFile ----
Wrote shamjam.bsp
          582 planes            11640
         1014 vertexes          12168
          369 nodes              8856
           90 texinfo            3600
          756 faces             15120
         1301 clipnodes         10408
          236 leafs              6608
         1019 marksurfaces       2038
         3662 surfedges         14648
         1832 edges              7328
           11 textures         252428
              lightdata             0
              visdata               0
              entdata            3543

0.348 seconds elapsed
Peak memory usage: 7094454 (6.8M)
