---- qbsp / ericw-tools v0.18.1-32-g6660c5f ----
Input file: shamjam.map
Output file: shamjam.bsp

---- LoadMapFile ----
*** WARNING 06: No info_player_deathmatch entities in level
          716 faces
          112 brushes
           50 entities
           11 unique texnames
           96 texinfo

Opened WAD: C:/quakedev/wads/e4m8.wad
Opened WAD: C:/quakedev/wads/mg1.wad
Processing hull 0...
---- Brush_LoadEntity ----
          110 brushes
          197 planes
---- CSGFaces ----
          704 brushfaces
          707 csgfaces
          598 mergedfaces
---- SolidBSP ----
          897 split nodes
          279 solid leafs
          598 empty leafs
           21 water leafs
            0 detail leafs
            0 detail illusionary leafs
            0 detail fence leafs
            0 illusionary visblocker leafs
         1622 leaffaces
         1490 nodefaces
---- Portalize ----
          619 vis leafs
          619 vis clusters
         1879 vis portals
---- FillOutside ----
          224 outleafs
---- MergeAll ----
          554 mergefaces
---- SolidBSP ----
          352 split nodes
          130 solid leafs
          214 empty leafs
            9 water leafs
            0 detail leafs
            0 detail illusionary leafs
            0 detail fence leafs
            0 illusionary visblocker leafs
          960 leaffaces
          680 nodefaces
---- Portalize ----
          223 vis leafs
          223 vis clusters
          841 vis portals
---- Tjunc ----
          787 world edges
         2507 edge points
          652 edges added by tjunctions
            0 faces added by tjunctions
---- MakeFaceEdges ----
---- GrowRegions ----
Processing hull 1...
Processing hull 2...
---- WriteBSPFile ----
Wrote shamjam.bsp
          581 planes            11620
          994 vertexes          11928
          364 nodes              8736
           90 texinfo            3600
          734 faces             14680
         1321 clipnodes         10568
          236 leafs              6608
         1014 marksurfaces       2028
         3576 surfedges         14304
         1789 edges              7156
           11 textures         252428
              lightdata             0
              visdata               0
              entdata            3543

0.307 seconds elapsed
Peak memory usage: 7079836 (6.8M)
