---- qbsp / ericw-tools v0.18.1-32-g6660c5f ----
Input file: shamjam.map
Output file: shamjam.bsp

---- LoadMapFile ----
*** WARNING 06: No info_player_deathmatch entities in level
         1430 faces
          200 brushes
          105 entities
           29 unique texnames
          169 texinfo

Opened WAD: C:/quakedev/wads/e4m8.wad
Opened WAD: C:/quakedev/wads/mg1.wad
Opened WAD: C:/quakedev/wads/biome-pritchard.wad
Processing hull 0...
---- Brush_LoadEntity ----
          167 brushes
           24 detail
          414 planes
---- CSGFaces ----
         1376 brushfaces
         1935 csgfaces
         2301 mergedfaces
---- SolidBSP ----
         2336 split nodes
          482 solid leafs
         1504 empty leafs
          203 water leafs
          148 detail leafs
            0 detail illusionary leafs
            0 detail fence leafs
            0 illusionary visblocker leafs
         5411 leaffaces
         4948 nodefaces
---- Portalize ----
         1855 vis leafs
         1855 vis clusters
         5586 vis portals
---- FillOutside ----
*** WARNING 10: Reached occupant at (494 130 340), no filling performed.
Leak file written to shamjam.pts
---- MakeFaceEdges ----
---- GrowRegions ----
Processing hull 1...
Processing hull 2...
---- WriteBSPFile ----
Wrote shamjam.bsp
         1173 planes            23460
         4093 vertexes          49116
         2382 nodes             57168
          143 texinfo            5720
         4032 faces             80640
         2631 clipnodes         21048
         1750 leafs             49000
         4485 marksurfaces       8970
        16020 surfedges         64080
        10336 edges             41344
           39 textures         447460
              lightdata             0
              visdata               0
              entdata            9371

1.309 seconds elapsed
Peak memory usage: 19195830 (18.3M)
