---- qbsp / ericw-tools v0.18.1-32-g6660c5f ----
Input file: shamjam.map
Output file: shamjam.bsp

---- LoadMapFile ----
*** WARNING 06: No info_player_deathmatch entities in level
          822 faces
          128 brushes
           89 entities
           19 unique texnames
          143 texinfo

Opened WAD: C:/quakedev/wads/e4m8.wad
Opened WAD: C:/quakedev/wads/mg1.wad
Opened WAD: C:/quakedev/wads/biome-pritchard.wad
Processing hull 0...
---- Brush_LoadEntity ----
          115 brushes
            4 detail
          219 planes
---- CSGFaces ----
          768 brushfaces
          770 csgfaces
          741 mergedfaces
---- SolidBSP ----
          991 split nodes
          292 solid leafs
          655 empty leafs
           21 water leafs
           24 detail leafs
            0 detail illusionary leafs
            0 detail fence leafs
            0 illusionary visblocker leafs
         1902 leaffaces
         1758 nodefaces
---- Portalize ----
          700 vis leafs
          700 vis clusters
         2085 vis portals
---- FillOutside ----
          244 outleafs
---- MergeAll ----
          688 mergefaces
---- SolidBSP ----
          383 split nodes
          131 solid leafs
          239 empty leafs
           10 water leafs
            4 detail leafs
            0 detail illusionary leafs
            0 detail fence leafs
            0 illusionary visblocker leafs
         1117 leaffaces
          796 nodefaces
---- Portalize ----
          249 vis leafs
          201 vis clusters
          748 vis portals
---- Tjunc ----
          846 world edges
         2690 edge points
          724 edges added by tjunctions
            0 faces added by tjunctions
---- MakeFaceEdges ----
---- GrowRegions ----
Processing hull 1...
Processing hull 2...
---- WriteBSPFile ----
Wrote shamjam.bsp
          653 planes            13060
         1103 vertexes          13236
          429 nodes             10296
          119 texinfo            4760
          828 faces             16560
         1405 clipnodes         11240
          292 leafs              8176
         1149 marksurfaces       2298
         3978 surfedges         15912
         1990 edges              7960
           20 textures         411264
              lightdata             0
              visdata               0
              entdata            8270

1.025 seconds elapsed
Peak memory usage: 7632686 (7.3M)
