---- qbsp / ericw-tools v0.18.1-32-g6660c5f ----
Input file: shamjam.map
Output file: shamjam.bsp

---- LoadMapFile ----
*** WARNING 06: No info_player_deathmatch entities in level
          716 faces
          112 brushes
           52 entities
           11 unique texnames
           96 texinfo

Opened WAD: C:/quakedev/wads/e4m8.wad
Opened WAD: C:/quakedev/wads/mg1.wad
Processing hull 0...
---- Brush_LoadEntity ----
          110 brushes
          197 planes
---- CSGFaces ----
          704 brushfaces
          707 csgfaces
          598 mergedfaces
---- SolidBSP ----
          897 split nodes
          279 solid leafs
          598 empty leafs
           21 water leafs
            0 detail leafs
            0 detail illusionary leafs
            0 detail fence leafs
            0 illusionary visblocker leafs
         1548 leaffaces
         1421 nodefaces
---- Portalize ----
          619 vis leafs
          619 vis clusters
         1881 vis portals
---- FillOutside ----
          224 outleafs
---- MergeAll ----
          552 mergefaces
---- SolidBSP ----
          350 split nodes
          129 solid leafs
          213 empty leafs
            9 water leafs
            0 detail leafs
            0 detail illusionary leafs
            0 detail fence leafs
            0 illusionary visblocker leafs
          904 leaffaces
          629 nodefaces
---- Portalize ----
          222 vis leafs
          222 vis clusters
          838 vis portals
---- Tjunc ----
          740 world edges
         2318 edge points
          569 edges added by tjunctions
            0 faces added by tjunctions
---- MakeFaceEdges ----
---- GrowRegions ----
Processing hull 1...
Processing hull 2...
---- WriteBSPFile ----
Wrote shamjam.bsp
          466 planes             9320
          884 vertexes          10608
          362 nodes              8688
           90 texinfo            3600
          665 faces             13300
          924 clipnodes          7392
          235 leafs              6580
          940 marksurfaces       1880
         3210 surfedges         12840
         1606 edges              6424
           11 textures         252428
              lightdata             0
              visdata               0
              entdata            3383

0.436 seconds elapsed
Peak memory usage: 6032224 (5.8M)
