---- qbsp / ericw-tools v0.18.1-32-g6660c5f ----
Input file: shamjam.map
Output file: shamjam.bsp

---- LoadMapFile ----
*** WARNING 06: No info_player_deathmatch entities in level
          822 faces
          128 brushes
           85 entities
           19 unique texnames
          143 texinfo

Opened WAD: C:/quakedev/wads/e4m8.wad
Opened WAD: C:/quakedev/wads/mg1.wad
Opened WAD: C:/quakedev/wads/biome-pritchard.wad
Processing hull 0...
---- Brush_LoadEntity ----
          119 brushes
          219 planes
---- CSGFaces ----
          768 brushfaces
          778 csgfaces
          685 mergedfaces
---- SolidBSP ----
          997 split nodes
          319 solid leafs
          658 empty leafs
           21 water leafs
            0 detail leafs
            0 detail illusionary leafs
            0 detail fence leafs
            0 illusionary visblocker leafs
         1788 leaffaces
         1643 nodefaces
---- Portalize ----
          679 vis leafs
          679 vis clusters
         2030 vis portals
---- FillOutside ----
          247 outleafs
---- MergeAll ----
          629 mergefaces
---- SolidBSP ----
          385 split nodes
          136 solid leafs
          240 empty leafs
           10 water leafs
            0 detail leafs
            0 detail illusionary leafs
            0 detail fence leafs
            0 illusionary visblocker leafs
         1060 leaffaces
          746 nodefaces
---- Portalize ----
          250 vis leafs
          250 vis clusters
          929 vis portals
---- Tjunc ----
          848 world edges
         2707 edge points
          692 edges added by tjunctions
            0 faces added by tjunctions
---- MakeFaceEdges ----
---- GrowRegions ----
Processing hull 1...
Processing hull 2...
---- WriteBSPFile ----
Wrote shamjam.bsp
          653 planes            13060
         1112 vertexes          13344
          431 nodes             10344
          119 texinfo            4760
          834 faces             16680
         1386 clipnodes         11088
          293 leafs              8204
         1148 marksurfaces       2296
         4008 surfedges         16032
         2005 edges              8020
           19 textures         389460
              lightdata             0
              visdata               0
              entdata            8270

0.679 seconds elapsed
Peak memory usage: 7561960 (7.2M)
