---- qbsp / ericw-tools v0.18.1-32-g6660c5f ----
Input file: shamjam.map
Output file: shamjam.bsp

---- LoadMapFile ----
*** WARNING 06: No info_player_deathmatch entities in level
         1430 faces
          200 brushes
          101 entities
           29 unique texnames
          169 texinfo

Opened WAD: C:/quakedev/wads/e4m8.wad
Opened WAD: C:/quakedev/wads/mg1.wad
Opened WAD: C:/quakedev/wads/biome-pritchard.wad
Processing hull 0...
---- Brush_LoadEntity ----
          167 brushes
           24 detail
          420 planes
---- CSGFaces ----
         1376 brushfaces
         1920 csgfaces
         2283 mergedfaces
---- SolidBSP ----
         2335 split nodes
          482 solid leafs
         1505 empty leafs
          203 water leafs
          146 detail leafs
            0 detail illusionary leafs
            0 detail fence leafs
            0 illusionary visblocker leafs
         5354 leaffaces
         4908 nodefaces
---- Portalize ----
         1854 vis leafs
         1854 vis clusters
         5603 vis portals
---- FillOutside ----
*** WARNING 10: Reached occupant at (494 130 340), no filling performed.
Leak file written to shamjam.pts
---- MakeFaceEdges ----
---- GrowRegions ----
Processing hull 1...
Processing hull 2...
---- WriteBSPFile ----
Wrote shamjam.bsp
         1176 planes            23520
         4068 vertexes          48816
         2381 nodes             57144
          144 texinfo            5760
         4015 faces             80300
         2631 clipnodes         21048
         1751 leafs             49028
         4451 marksurfaces       8902
        15952 surfedges         63808
        10264 edges             41056
           39 textures         447460
              lightdata             0
              visdata               0
              entdata            8613

1.358 seconds elapsed
Peak memory usage: 19128926 (18.2M)
