---- qbsp / ericw-tools v0.18.1-32-g6660c5f ----
Input file: shamjam.map
Output file: shamjam.bsp

---- LoadMapFile ----
*** WARNING 06: No info_player_deathmatch entities in level
          744 faces
          115 brushes
           52 entities
           12 unique texnames
          104 texinfo

Opened WAD: C:/quakedev/wads/e4m8.wad
Opened WAD: C:/quakedev/wads/mg1.wad
Opened WAD: C:/quakedev/wads/biome-pritchard.wad
Processing hull 0...
---- Brush_LoadEntity ----
          110 brushes
          207 planes
---- CSGFaces ----
          714 brushfaces
          730 csgfaces
          636 mergedfaces
---- SolidBSP ----
          892 split nodes
          276 solid leafs
          597 empty leafs
           20 water leafs
            0 detail leafs
            0 detail illusionary leafs
            0 detail fence leafs
            0 illusionary visblocker leafs
         1644 leaffaces
         1501 nodefaces
---- Portalize ----
          617 vis leafs
          617 vis clusters
         1859 vis portals
---- FillOutside ----
          216 outleafs
---- MergeAll ----
          580 mergefaces
---- SolidBSP ----
          368 split nodes
          135 solid leafs
          225 empty leafs
            9 water leafs
            0 detail leafs
            0 detail illusionary leafs
            0 detail fence leafs
            0 illusionary visblocker leafs
         1001 leaffaces
          712 nodefaces
---- Portalize ----
          234 vis leafs
          234 vis clusters
          877 vis portals
---- Tjunc ----
          804 world edges
         2579 edge points
          646 edges added by tjunctions
            0 faces added by tjunctions
---- MakeFaceEdges ----
---- GrowRegions ----
Processing hull 1...
Processing hull 2...
---- WriteBSPFile ----
Wrote shamjam.bsp
          614 planes            12280
         1030 vertexes          12360
          394 nodes              9456
           98 texinfo            3920
          780 faces             15600
         1335 clipnodes         10680
          259 leafs              7252
         1069 marksurfaces       2138
         3738 surfedges         14952
         1870 edges              7480
           12 textures         312312
              lightdata             0
              visdata               0
              entdata            3938

0.375 seconds elapsed
Peak memory usage: 7216006 (6.9M)
