---- qbsp / ericw-tools v0.18.1-32-g6660c5f ----
Input file: shamjam.map
Output file: shamjam.bsp

---- LoadMapFile ----
*** WARNING 06: No info_player_deathmatch entities in level
          710 faces
          111 brushes
           49 entities
           11 unique texnames
           96 texinfo

Opened WAD: C:/quakedev/wads/e4m8.wad
Opened WAD: C:/quakedev/wads/mg1.wad
Processing hull 0...
---- Brush_LoadEntity ----
          110 brushes
          197 planes
---- CSGFaces ----
          704 brushfaces
          707 csgfaces
          598 mergedfaces
---- SolidBSP ----
          897 split nodes
          279 solid leafs
          598 empty leafs
           21 water leafs
            0 detail leafs
            0 detail illusionary leafs
            0 detail fence leafs
            0 illusionary visblocker leafs
         1548 leaffaces
         1421 nodefaces
---- Portalize ----
          619 vis leafs
          619 vis clusters
         1881 vis portals
---- FillOutside ----
          224 outleafs
---- MergeAll ----
          548 mergefaces
---- SolidBSP ----
          350 split nodes
          129 solid leafs
          213 empty leafs
            9 water leafs
            0 detail leafs
            0 detail illusionary leafs
            0 detail fence leafs
            0 illusionary visblocker leafs
          893 leaffaces
          625 nodefaces
---- Portalize ----
          222 vis leafs
          222 vis clusters
          838 vis portals
---- Tjunc ----
          736 world edges
         2305 edge points
          567 edges added by tjunctions
            0 faces added by tjunctions
---- MakeFaceEdges ----
---- GrowRegions ----
Processing hull 1...
Processing hull 2...
---- WriteBSPFile ----
Wrote shamjam.bsp
          462 planes             9240
          839 vertexes          10068
          356 nodes              8544
           85 texinfo            3400
          631 faces             12620
          912 clipnodes          7296
          229 leafs              6412
          899 marksurfaces       1798
         3056 surfedges         12224
         1529 edges              6116
           11 textures         252428
              lightdata             0
              visdata               0
              entdata            2808

0.525 seconds elapsed
Peak memory usage: 5961070 (5.7M)
