---- qbsp / ericw-tools v0.18.1-32-g6660c5f ----
Input file: soj.map
Output file: soj.bsp

---- LoadMapFile ----
*** WARNING 06: No info_player_deathmatch entities in level
        10088 faces
         1342 brushes
          137 entities
           34 unique texnames
          194 texinfo

Opened WAD: C:/quakedev/wads/e1m1.wad
Opened WAD: C:/quakedev/wads/Makkon2.wad
Opened WAD: C:/quakedev/wads/Makkon1.wad
Opened WAD: C:/quakedev/wads/mg1.wad
Opened WAD: C:/quakedev/wads/prototype.wad
Opened WAD: C:/quakedev/wads/biome-pritchard.wad
Opened WAD: C:/quakedev/wads/liquids.wad
Processing hull 0...
---- Brush_LoadEntity ----
          951 brushes
          384 detail wall
         3467 planes
---- CSGFaces ----
        10039 brushfaces
         9484 csgfaces
         9409 mergedfaces
---- SolidBSP ----
        15672 split nodes
         3353 solid leafs
         9842 empty leafs
          537 water leafs
         1941 detail leafs
            0 detail illusionary leafs
            0 detail fence leafs
            0 illusionary visblocker leafs
        35789 leaffaces
        30847 nodefaces
---- Portalize ----
*** WARNING 12: New portal was clipped away in CutNodePortals_r near (1588.718 105.895 -226.000)
*** WARNING 12: New portal was clipped away in CutNodePortals_r near (1748.828 45.387 -385.650)
*** WARNING 12: New portal was clipped away in CutNodePortals_r near (1116.785 -92.687 769.914)
*** WARNING 12: New portal was clipped away in CutNodePortals_r near (1144.097 -88.001 753.912)
*** WARNING 12: New portal was clipped away in CutNodePortals_r near (1079.342 -211.245 703.271)
*** WARNING 12: New portal was clipped away in CutNodePortals_r near (1126.850 -102.752 736.148)
*** WARNING 12: New portal was clipped away in CutNodePortals_r near (1116.608 -104.509 742.147)
        12320 vis leafs
        12320 vis clusters
        46446 vis portals
---- FillOutside ----
          390 outleafs
---- MergeAll ----
         9329 mergefaces
---- SolidBSP ----
        10023 split nodes
         2110 solid leafs
         6221 empty leafs
          324 water leafs
         1369 detail leafs
            0 detail illusionary leafs
            0 detail fence leafs
            0 illusionary visblocker leafs
        26448 leaffaces
        20779 nodefaces
---- Portalize ----
         6545 vis leafs
         3279 vis clusters
        12925 vis portals
---- Tjunc ----
        15352 world edges
        51468 edge points
        11608 edges added by tjunctions
            0 faces added by tjunctions
---- MakeFaceEdges ----
---- GrowRegions ----
Processing hull 1...
*** WARNING 12: New portal was clipped away in CutNodePortals_r near (1747.796 166.637 -234.000)
*** WARNING 12: New portal was clipped away in CutNodePortals_r near (1741.196 166.406 -308.249)
Processing hull 2...
*** WARNING 16: Texture d128x64 not found
---- WriteBSPFile ----
Wrote soj.bsp
         7900 planes           158000
        18730 vertexes         224760
        10084 nodes            242016
          169 texinfo            6760
        15302 faces            306040
        18547 clipnodes        148376
         6602 leafs            184856
        19002 marksurfaces      38004
        69499 surfedges        277996
        34968 edges            139872
           40 textures        5925884
              lightdata             0
              visdata               0
              entdata            8600

9.423 seconds elapsed
Peak memory usage: 130937484 (124.9M)
