---- qbsp / ericw-tools v0.18.1-32-g6660c5f ----
Input file: soj.map
Output file: soj.bsp

---- LoadMapFile ----
*** WARNING 06: No info_player_deathmatch entities in level
         8011 faces
         1181 brushes
          118 entities
           26 unique texnames
          147 texinfo

Opened WAD: C:/quakedev/wads/e1m1.wad
Opened WAD: C:/quakedev/wads/Makkon2.wad
Opened WAD: C:/quakedev/wads/Makkon1.wad
Opened WAD: C:/quakedev/wads/mg1.wad
Opened WAD: C:/quakedev/wads/prototype.wad
Processing hull 0...
---- Brush_LoadEntity ----
          792 brushes
          384 detail wall
         3083 planes
---- CSGFaces ----
         7981 brushfaces
         6454 csgfaces
         6942 mergedfaces
---- SolidBSP ----
        12656 split nodes
         2393 solid leafs
         8143 empty leafs
          180 water leafs
         1941 detail leafs
            0 detail illusionary leafs
            0 detail fence leafs
            0 illusionary visblocker leafs
        30373 leaffaces
        26526 nodefaces
---- Portalize ----
*** WARNING 12: New portal was clipped away in CutNodePortals_r near (1116.785 -92.687 769.914)
*** WARNING 12: New portal was clipped away in CutNodePortals_r near (1144.097 -88.001 753.912)
*** WARNING 12: New portal was clipped away in CutNodePortals_r near (1079.342 -211.245 703.271)
*** WARNING 12: New portal was clipped away in CutNodePortals_r near (1126.850 -102.752 736.148)
*** WARNING 12: New portal was clipped away in CutNodePortals_r near (1116.608 -104.509 742.147)
        10264 vis leafs
        10264 vis clusters
        37593 vis portals
---- FillOutside ----
          324 outleafs
---- MergeAll ----
         6889 mergefaces
---- SolidBSP ----
         8604 split nodes
         1863 solid leafs
         5226 empty leafs
          147 water leafs
         1369 detail leafs
            0 detail illusionary leafs
            0 detail fence leafs
            0 illusionary visblocker leafs
        22857 leaffaces
        18183 nodefaces
---- Portalize ----
         5373 vis leafs
         2107 vis clusters
         7381 vis portals
---- Tjunc ----
        12631 world edges
        41387 edge points
         9076 edges added by tjunctions
            0 faces added by tjunctions
---- MakeFaceEdges ----
---- GrowRegions ----
Processing hull 1...
Processing hull 2...
*** WARNING 16: Texture d128x64 not found
---- WriteBSPFile ----
Wrote soj.bsp
         6717 planes           134340
        14939 vertexes         179268
         8634 nodes            207216
          128 texinfo            5120
        12658 faces            253160
        15313 clipnodes        122504
         5404 leafs            151312
        15359 marksurfaces      30718
        56494 surfedges        225976
        28454 edges            113816
           30 textures        5794884
              lightdata             0
              visdata               0
              entdata            7975

4.313 seconds elapsed
Peak memory usage: 111955514 (106.8M)
