---- qbsp / ericw-tools v0.18.1-32-g6660c5f ----
Input file: soj.map
Output file: soj.bsp

---- LoadMapFile ----
*** WARNING 06: No info_player_deathmatch entities in level
         7860 faces
         1156 brushes
          110 entities
           17 unique texnames
          112 texinfo

Opened WAD: C:/quakedev/wads/e1m1.wad
Opened WAD: C:/quakedev/wads/Makkon2.wad
Opened WAD: C:/quakedev/wads/Makkon1.wad
Opened WAD: C:/quakedev/wads/mg1.wad
Processing hull 0...
---- Brush_LoadEntity ----
          772 brushes
          384 detail wall
         3032 planes
---- CSGFaces ----
         7860 brushfaces
         5903 csgfaces
         6483 mergedfaces
---- SolidBSP ----
        11229 split nodes
         2002 solid leafs
         7261 empty leafs
          162 water leafs
         1805 detail leafs
            0 detail illusionary leafs
            0 detail fence leafs
            0 illusionary visblocker leafs
        27645 leaffaces
        24020 nodefaces
---- Portalize ----
*** WARNING 12: New portal was clipped away in CutNodePortals_r near (1113.193 -105.094 744.148)
*** WARNING 12: New portal was clipped away in CutNodePortals_r near (1116.608 -104.509 742.147)
         9228 vis leafs
         9228 vis clusters
        33881 vis portals
---- FillOutside ----
          167 outleafs
---- MergeAll ----
         6593 mergefaces
---- SolidBSP ----
         7230 split nodes
         1476 solid leafs
         4353 empty leafs
          138 water leafs
         1264 detail leafs
            0 detail illusionary leafs
            0 detail fence leafs
            0 illusionary visblocker leafs
        20704 leaffaces
        16265 nodefaces
---- Portalize ----
         4491 vis leafs
         1565 vis clusters
         5506 vis portals
---- Tjunc ----
        11452 world edges
        37122 edge points
         9010 edges added by tjunctions
            0 faces added by tjunctions
---- MakeFaceEdges ----
---- GrowRegions ----
Processing hull 1...
*** WARNING 12: New portal was clipped away in CutNodePortals_r near (1149.361 -65.264 705.558)
Processing hull 2...
---- WriteBSPFile ----
Wrote soj.bsp
         6127 planes           122540
        13429 vertexes         161148
         7230 nodes            173520
           97 texinfo            3880
        11196 faces            223920
        13327 clipnodes        106616
         4492 leafs            125776
        13701 marksurfaces      27402
        50512 surfedges        202048
        25391 edges            101564
           19 textures        4967560
              lightdata             0
              visdata               0
              entdata            5613

6.825 seconds elapsed
Peak memory usage: 103844742 (99.0M)
