---- qbsp / ericw-tools v0.18.1-32-g6660c5f ----
Input file: soj.map
Output file: soj.bsp

---- LoadMapFile ----
*** WARNING 06: No info_player_deathmatch entities in level
         9193 faces
         1270 brushes
          131 entities
           28 unique texnames
          153 texinfo

Opened WAD: C:/quakedev/wads/e1m1.wad
Opened WAD: C:/quakedev/wads/Makkon2.wad
Opened WAD: C:/quakedev/wads/Makkon1.wad
Opened WAD: C:/quakedev/wads/mg1.wad
Opened WAD: C:/quakedev/wads/prototype.wad
Opened WAD: C:/quakedev/wads/biome-pritchard.wad
Processing hull 0...
---- Brush_LoadEntity ----
          881 brushes
          384 detail wall
         3239 planes
---- CSGFaces ----
         9163 brushfaces
         8118 csgfaces
         8287 mergedfaces
---- SolidBSP ----
        14128 split nodes
         2858 solid leafs
         8793 empty leafs
          537 water leafs
         1941 detail leafs
            0 detail illusionary leafs
            0 detail fence leafs
            0 illusionary visblocker leafs
        33190 leaffaces
        28727 nodefaces
---- Portalize ----
*** WARNING 12: New portal was clipped away in CutNodePortals_r near (1116.785 -92.687 769.914)
*** WARNING 12: New portal was clipped away in CutNodePortals_r near (1144.097 -88.001 753.912)
*** WARNING 12: New portal was clipped away in CutNodePortals_r near (1079.342 -211.245 703.271)
*** WARNING 12: New portal was clipped away in CutNodePortals_r near (1126.850 -102.752 736.148)
*** WARNING 12: New portal was clipped away in CutNodePortals_r near (1116.608 -104.509 742.147)
        11271 vis leafs
        11271 vis clusters
        41929 vis portals
---- FillOutside ----
          390 outleafs
---- MergeAll ----
         8199 mergefaces
---- SolidBSP ----
         9303 split nodes
         1934 solid leafs
         5677 empty leafs
          324 water leafs
         1369 detail leafs
            0 detail illusionary leafs
            0 detail fence leafs
            0 illusionary visblocker leafs
        24725 leaffaces
        19546 nodefaces
---- Portalize ----
         6001 vis leafs
         2735 vis clusters
        10261 vis portals
---- Tjunc ----
        13967 world edges
        46693 edge points
        10486 edges added by tjunctions
            0 faces added by tjunctions
---- MakeFaceEdges ----
---- GrowRegions ----
Processing hull 1...
Processing hull 2...
*** WARNING 16: Texture d128x64 not found
---- WriteBSPFile ----
Wrote soj.bsp
         6863 planes           137260
        16951 vertexes         203412
         9333 nodes            223992
          132 texinfo            5280
        14021 faces            280420
        16193 clipnodes        129544
         6032 leafs            168896
        17228 marksurfaces      34456
        63326 surfedges        253304
        31869 edges            127476
           32 textures        5838492
              lightdata             0
              visdata               0
              entdata            8319

7.726 seconds elapsed
Peak memory usage: 118641672 (113.1M)
