---- qbsp / ericw-tools v0.18.1-32-g6660c5f ----
Input file: soj.map
Output file: soj.bsp

---- LoadMapFile ----
*** WARNING 06: No info_player_deathmatch entities in level
         7860 faces
         1156 brushes
           92 entities
           18 unique texnames
          120 texinfo

Opened WAD: C:/quakedev/wads/e1m1.wad
Opened WAD: C:/quakedev/wads/Makkon2.wad
Opened WAD: C:/quakedev/wads/Makkon1.wad
Opened WAD: C:/quakedev/wads/mg1.wad
Opened WAD: C:/quakedev/wads/prototype.wad
Processing hull 0...
---- Brush_LoadEntity ----
          772 brushes
          384 detail wall
         3046 planes
---- CSGFaces ----
         7860 brushfaces
         5928 csgfaces
         6504 mergedfaces
---- SolidBSP ----
        11235 split nodes
         2008 solid leafs
         7261 empty leafs
          162 water leafs
         1805 detail leafs
            0 detail illusionary leafs
            0 detail fence leafs
            0 illusionary visblocker leafs
        27744 leaffaces
        24109 nodefaces
---- Portalize ----
*** WARNING 12: New portal was clipped away in CutNodePortals_r near (1113.193 -105.094 744.148)
*** WARNING 12: New portal was clipped away in CutNodePortals_r near (1116.608 -104.509 742.147)
         9228 vis leafs
         9228 vis clusters
        33857 vis portals
---- FillOutside ----
          170 outleafs
---- MergeAll ----
         6605 mergefaces
---- SolidBSP ----
         7240 split nodes
         1480 solid leafs
         4365 empty leafs
          131 water leafs
         1265 detail leafs
            0 detail illusionary leafs
            0 detail fence leafs
            0 illusionary visblocker leafs
        20741 leaffaces
        16292 nodefaces
---- Portalize ----
         4496 vis leafs
         1568 vis clusters
         5467 vis portals
---- Tjunc ----
        11489 world edges
        37186 edge points
         9015 edges added by tjunctions
            0 faces added by tjunctions
---- MakeFaceEdges ----
---- GrowRegions ----
Processing hull 1...
*** WARNING 12: New portal was clipped away in CutNodePortals_r near (1149.361 -65.264 705.558)
Processing hull 2...
---- WriteBSPFile ----
Wrote soj.bsp
         6127 planes           122540
        13451 vertexes         161412
         7240 nodes            173760
          103 texinfo            4120
        11190 faces            223800
        13355 clipnodes        106840
         4497 leafs            125916
        13676 marksurfaces      27352
        50426 surfedges        201704
        25409 edges            101636
           20 textures        4973044
              lightdata             0
              visdata               0
              entdata            5664

4.820 seconds elapsed
Peak memory usage: 103916032 (99.1M)
