---- qbsp / ericw-tools v0.18.1-32-g6660c5f ----
Input file: terrain.map
Output file: terrain.bsp

---- LoadMapFile ----
*** WARNING 06: No info_player_deathmatch entities in level
         2781 faces
          548 brushes
           21 entities
           19 unique texnames
           57 texinfo

Opened WAD: C:/quakedev/wads/e4m3.wad
Opened WAD: C:/quakedev/wads/dm1.wad
Opened WAD: C:/quakedev/wads/biome-pritchard.wad
Opened WAD: C:/quakedev/wads/sludge1.wad
Processing hull 0...
---- Brush_LoadEntity ----
          546 brushes
          433 planes
---- CSGFaces ----
         2769 brushfaces
         1354 csgfaces
          743 mergedfaces
---- SolidBSP ----
         1292 split nodes
          563 solid leafs
          639 empty leafs
           91 water leafs
            0 detail leafs
            0 detail illusionary leafs
            0 detail fence leafs
            0 illusionary visblocker leafs
         5061 leaffaces
         4797 nodefaces
---- Portalize ----
          730 vis leafs
          730 vis clusters
         2235 vis portals
---- FillOutside ----
*** WARNING 10: Reached occupant at (-848 576 -232), no filling performed.
Leak file written to terrain.pts
---- MakeFaceEdges ----
---- GrowRegions ----
Processing hull 1...
Processing hull 2...
---- WriteBSPFile ----
Wrote terrain.bsp
         1103 planes            22060
         5324 vertexes          63888
         1304 nodes             31296
           46 texinfo            1840
         4813 faces             96260
         3097 clipnodes         24776
          743 leafs             20804
         5077 marksurfaces      10154
        18693 surfedges         74772
        11575 edges             46300
           19 textures         649560
              lightdata             0
              visdata               0
              entdata            1575

0.985 seconds elapsed
Peak memory usage: 24932654 (23.8M)
