---- qbsp / ericw-tools v0.18.1-32-g6660c5f ----
Input file: terrain.map
Output file: terrain.bsp

---- LoadMapFile ----
*** WARNING 06: No info_player_deathmatch entities in level
         2813 faces
          550 brushes
           28 entities
           19 unique texnames
           57 texinfo

Opened WAD: C:/quakedev/wads/e4m3.wad
Opened WAD: C:/quakedev/wads/dm1.wad
Opened WAD: C:/quakedev/wads/biome-pritchard.wad
Opened WAD: C:/quakedev/wads/sludge1.wad
Processing hull 0...
---- Brush_LoadEntity ----
          549 brushes
          460 planes
---- CSGFaces ----
         2807 brushfaces
         1422 csgfaces
          817 mergedfaces
---- SolidBSP ----
         1356 split nodes
          571 solid leafs
          686 empty leafs
          100 water leafs
            0 detail leafs
            0 detail illusionary leafs
            0 detail fence leafs
            0 illusionary visblocker leafs
         5255 leaffaces
         4951 nodefaces
---- Portalize ----
          786 vis leafs
          786 vis clusters
         2377 vis portals
---- FillOutside ----
          145 outleafs
---- MergeAll ----
          805 mergefaces
---- SolidBSP ----
         1167 split nodes
          595 solid leafs
          497 empty leafs
           76 water leafs
            0 detail leafs
            0 detail illusionary leafs
            0 detail fence leafs
            0 illusionary visblocker leafs
         4110 leaffaces
         3759 nodefaces
---- Portalize ----
          573 vis leafs
          573 vis clusters
         1845 vis portals
---- Tjunc ----
         2541 world edges
        10839 edge points
         2262 edges added by tjunctions
            0 faces added by tjunctions
---- MakeFaceEdges ----
---- GrowRegions ----
Processing hull 1...
Processing hull 2...
---- WriteBSPFile ----
Wrote terrain.bsp
         1181 planes            23620
         4340 vertexes          52080
         1173 nodes             28152
           49 texinfo            1960
         3769 faces             75380
         3150 clipnodes         25200
          580 leafs             16240
         4120 marksurfaces       8240
        16826 surfedges         67304
         8414 edges             33656
           19 textures         655000
              lightdata             0
              visdata               0
              entdata            2102

0.953 seconds elapsed
Peak memory usage: 23511776 (22.4M)
